@<TRIPOS>MOLECULE
PO4
    5     4     1     0     0
SMALL
bcc


@<TRIPOS>ATOM
      1 P           16.4770    16.4310    15.9270 p5         1 PO4       1.243000
      2 O1          16.6530    16.3870    14.3700 o          1 PO4      -1.060500
      3 O2          16.4850    14.9700    16.4950 o          1 PO4      -1.060500
      4 O3          15.1150    17.1210    16.2800 o          1 PO4      -1.060500
      5 O           17.6560    17.2450    16.5640 o          1 PO4      -1.060500
@<TRIPOS>BOND
     1     1     2 1   
     2     1     3 1   
     3     1     4 1   
     4     1     5 1   
@<TRIPOS>SUBSTRUCTURE
     1 PO4         1 TEMP              0 ****  ****    0 ROOT
